power-flow-agent/results/ieee14/2026-09-21/gpt-5.6-sol/react_nogate__v1/traces/38_case14-plain-028-s0.transcript.txt
==============================================================================
TRANSCRIPT  react_nogate  |  openrouter:openai/gpt-5.6-sol  |  case14  |  case14-plain-028-s0  run 0
==============================================================================
date: 2026-09-21   seed: 0   difficulty: plain   tool variant: v1

[system]   (hash 7da5e2a37ec4, from methods/react_nogate/method.json prompt_files)
You are a power system power-flow analysis assistant. You help the user complete power system analysis tasks from natural-language requests.

## What you can do
You complete tasks by calling tool functions:
1. Load an IEEE standard test system (14, 30, 57, 118, 300 buses)
2. Run AC power flow
3. Modify the load at a bus and re-solve
4. Disconnect or reconnect a line and re-solve
5. Query the network status
6. Run an N-1 contingency analysis (disconnect branches one at a time and rank the worst cases)
7. Generate remedial-action suggestions (what-if load shedding or voltage adjustment) to reduce violation risk

## Key rules
- Never fabricate any numerical result. Every voltage, power, loss, or loading value must come from a tool return value.
- If a tool reports an error or a non-converged power flow, say so explicitly and do not report numbers for that state.
- If the request is ambiguous, state the interpretation you are using.
- Bus and line identifiers in the request are MATPOWER 1-based ids; pass them to the tools as given, unless the request itself states a different indexing convention for that identifier (e.g. "(0-based)"), in which case convert it to the MATPOWER 1-based id before calling any tool.
- After a network modification, re-solve before reporting any value.
- Always reply in English.

## Reply format
After each analysis, reply in this structure:
1. One-sentence summary
2. Key numbers (total load, total generation, total losses, voltage range) taken from the tool outputs
3. Violations, if any
4. Suggested next step

[user]
Load case14 and run the AC power flow.

--- round 1 ---
[assistant]   (790 in / 42 out tokens, 6.8 s)
(no text)
tool_call  load_case(case_name="case14")
[tool load_case]   (gate: not applied)
{"case_name": "case14", "n_buses": 14, "n_generators": 5, "n_lines": 20, "n_loads": 11, "total_load_mw": 259.7716564466046, "total_gen_capacity_mw": 772.4000000000001}

--- round 2 ---
[assistant]   (891 in / 15 out tokens, 5.2 s)
(no text)
tool_call  run_powerflow()
[tool run_powerflow]   (gate: pass)
{"case_name": "case14", "converged": true, "bus_voltages": [{"bus_id": 1, "vm_pu": 1.06, "va_deg": 0.0, "is_violation": true, "violation_type": "overvoltage"}, {"bus_id": 2, "vm_pu": 1.0449999999999997, "va_deg": -5.0385272112420685, "is_violation": false, "violation_type": null}, {"bus_id": 3, "vm_pu": 1.01, "va_deg": -12.792370446130427, "is_violation": false, "violation_type": null}, {"bus_id": 4, "vm_pu": 1.0169457281905623, "va_deg": -10.44400332622655, "is_violation": false, "violation_type": null}, {"bus_id": 5, "vm_pu": 1.0190228165874005, "va_deg": -8.879157524966221, "is_violation": false, "violation_type": null}, {"bus_id": 6, "vm_pu": 1.0699999999999998, "va_deg": -14.447164651279126, "is_violation": true, "violation_type": "overvoltage"}, {"bus_id": 7, "vm_pu": 1.0603870023419582, "va_deg": -13.596643325660276, "is_violation": true, "violation_type": "overvoltage"}, {"bus_id": 8, "vm_pu": 1.0900000000000003, "va_deg": -13.59664332566027, "is_violation": true, "violation_type": "overvoltage"}, {"bus_id": 9, "vm_pu": 1.0539688065468726, "va_deg": -15.232261614946491, "is_violation": true, "violation_type": "overvoltage"}, {"bus_id": 10, "vm_pu": 1.0488898854804465, "va_deg": -15.39577993607821, "is_violation": false, "violation_type": null}, {"bus_id": 11, "vm_pu": 1.0560738225877015, "va_deg": -15.0408491058167, "is_violation": true, "violation_type": "overvoltage"}, {"bus_id": 12, "vm_pu": 1.0551595422716946, "va_deg": -15.30306735680079, "is_violation": true, "violation_type": "overvoltage"}, {"bus_id": 13, "vm_pu": 1.0499480053401038, "va_deg": -15.39484512172817, "is_violation": false, "violation_type": null}, {"bus_id": 14, "vm_pu": 1.0346576561030587, "va_deg": -16.280762081576466, "is_violation": false, "violation_type": null}], "line_flows": [{"line_id": 0, "from_bus": 1, "to_bus": 2, "p_from_mw": 158.57442978075298, "q_from_mvar": -20.798692712001422, "loading_percent": 1.5240384641097628, "is_violation": false}, {"line_id": 1, "from_bus": 1, "to_bus": 5, "p_from_mw": 76.3915669470468, "q_from_mvar": 4.0087437957409495, "loading_percent": 0.729564026466934, "is_violation": false}, {"line_id": 2, "from_bus": 2, "to_bus": 3, "p_from_mw": 73.33968643099566, "q_from_mvar": 3.550183328233578, "loading_percent": 0.7103604829444273, "is_violation": false}, {"line_id": 3, "from_bus": 2, "to_bus": 4, "p_from_mw": 56.954765809344224, "q_from_mvar": -1.3198045688131697, "loading_percent": 0.5506747433903092, "is_violation": false}, {"line_id": 4, "from_bus": 2, "to_bus": 5, "p_from_mw": 42.07156211185461, "q_from_mvar": 1.3186902421028557, "loading_percent": 0.4083956379548257, "is_violation": false}, {"line_id": 5, "from_bus": 3, "to_bus": 4, "p_from_mw": -22.55466933254763, "q_from_mvar": 4.586748704209534, "loading_percent": 0.23288945339773934, "is_violation": false}, {"line_id": 6, "from_bus": 4, "to_bus": 5, "p_from_mw": -62.24654925705499, "q_from_mvar": 15.63548836416469, "loading_percent": 0.6374825044005047, "is_violation": false}, {"line_id": 7, "from_bus": 6, "to_bus": 11, "p_from_mw": 7.718619178534299, "q_from_mvar": 3.836363214131109, "loading_percent": 0.08136921638572633, "is_violation": false}, {"line_id": 8, "from_bus": 6, "to_bus": 12, "p_from_mw": 7.798628285377449, "q_from_mvar": 2.5096617855374896, "loading_percent": 0.07733877935655012, "is_violation": false}, {"line_id": 9, "from_bus": 6, "to_bus": 13, "p_from_mw": 18.036148336936968, "q_from_mvar": 7.429486895327406, "loading_percent": 0.18414431429256797, "is_violation": false}, {"line_id": 10, "from_bus": 9, "to_bus": 10, "p_from_mw": 5.3608264375673595, "q_from_mvar": 4.322186488852347, "loading_percent": 0.06599586202614495, "is_violation": false}, {"line_id": 11, "from_bus": 9, "to_bus": 14, "p_from_mw": 8.968722031094869, "q_from_mvar": 3.378872877462389, "loading_percent": 0.09185184274324673, "is_violation": false}, {"line_id": 12, "from_bus": 10, "to_bus": 11, "p_from_mw": -4.434521773852049, "q_from_mvar": -2.017691536029189, "loading_percent": 0.04691797357380081, "is_violation": false}, {"line_id": 13, "from_bus": 12, "to_bus": 13, "p_from_mw": 1.7687046269240483, "q_from_mvar": 0.7969791678560397, "loading_percent": 0.01857129396990593, "is_violation": false}, {"line_id": 14, "from_bus": 13, "to_bus": 14, "p_from_mw": 5.7284205092735085, "q_from_mvar": 1.8367737116237886, "loading_percent": 0.05787387192389656, "is_violation": false}, {"line_id": 100000, "from_bus": 4, "to_bus": 7, "p_from_mw": 28.997484597802675, "q_from_mvar": -9.42779413916531, "loading_percent": 0.3028636718586288, "is_violation": false}, {"line_id": 100001, "from_bus": 4, "to_bus": 9, "p_from_mw": 16.60105478460166, "q_from_mvar": -0.15300188684836188, "loading_percent": 0.16490018996572084, "is_violation": false}, {"line_id": 100002, "from_bus": 5, "to_bus": 6, "p_from_mw": 45.04121779748556, "q_from_mvar": 12.330118279580065, "loading_percent": 0.4628957062983242, "is_violation": false}, {"line_id": 100003, "from_bus": 7, "to_bus": 8, "p_from_mw": -4.063256404431367e-14, "q_from_mvar": -17.8264194249053, "loading_percent": 0.1698104958643609, "is_violation": false}, {"line_id": 100004, "from_bus": 7, "to_bus": 9, "p_from_mw": 28.997484597444096, "q_from_mvar": 6.600425110586346, "loading_percent": 0.28328894011306405, "is_violation": false}], "total_generation_mw": 273.4137587234044, "total_load_mw": 259.7716564466046, "total_loss_mw": 13.642102282876028, "voltage_violations": [{"bus_id": 1, "vm_pu": 1.06, "va_deg": 0.0, "is_violation": true, "violation_type": "overvoltage"}, {"bus_id": 6, "vm_pu": 1.0699999999999998, "va_deg": -14.447164651279126, "is_violation": true, "violation_type": "overvoltage"}, {"bus_id": 7, "vm_pu": 1.0603870023419582, "va_deg": -13.596643325660276, "is_violation": true, "violation_type": "overvoltage"}, {"bus_id": 8, "vm_pu": 1.0900000000000003, "va_deg": -13.59664332566027, "is_violation": true, "violation_type": "overvoltage"}, {"bus_id": 9, "vm_pu": 1.0539688065468726, "va_deg": -15.232261614946491, "is_violation": true, "violation_type": "overvoltage"}, {"bus_id": 11, "vm_pu": 1.0560738225877015, "va_deg": -15.0408491058167, "is_violation": true, "violation_type": "overvoltage"}, {"bus_id": 12, "vm_pu": 1.0551595422716946, "va_deg": -15.30306735680079, "is_violation": true, "violation_type": "overvoltage"}], "thermal_violations": [], "summary_text": "", "solver_backend": "pandapower", "llm_prompt": null, "llm_response": null}

--- round 3 ---
[assistant]   (3538 in / 168 out tokens, 8.0 s)
1. **Summary:** IEEE 14-bus case loaded successfully, and the AC power flow converged.

2. **Key numbers:**
   - Total load: **259.772 MW**
   - Total generation: **273.414 MW**
   - Total active-power losses: **13.642 MW**
   - Voltage range: **1.010–1.090 p.u.**

3. **Violations:**
   - Overvoltage at buses **1, 6, 7, 8, 9, 11, and 12**
   - Highest voltage: **1.090 p.u. at bus 8**
   - No thermal violations

4. **Suggested next step:** Review voltage-control settings or generate remedial-action recommendations to reduce the overvoltages.

[final answer]
1. **Summary:** IEEE 14-bus case loaded successfully, and the AC power flow converged.

2. **Key numbers:**
   - Total load: **259.772 MW**
   - Total generation: **273.414 MW**
   - Total active-power losses: **13.642 MW**
   - Voltage range: **1.010–1.090 p.u.**

3. **Violations:**
   - Overvoltage at buses **1, 6, 7, 8, 9, 11, and 12**
   - Highest voltage: **1.090 p.u. at bus 8**
   - No thermal violations

4. **Suggested next step:** Review voltage-control settings or generate remedial-action recommendations to reduce the overvoltages.
